CRYSTAL
PRIMVEC
    2.740000     2.740000     0.000000
    0.000000     2.740000     2.740000
    2.740000     0.000000     2.740000
CONVVEC
    2.740000     2.740000     0.000000
    0.000000     2.740000     2.740000
    2.740000     0.000000     2.740000
PRIMCOORD
2 1
14     0.000000     0.000000     0.000000
14     1.370000     1.370000     1.370000
