CRYSTAL
PRIMVEC
    5.500000     0.000000     0.000000
    0.000000     5.500000     0.000000
    0.000000     0.000000     5.500000
CONVVEC
    5.500000     0.000000     0.000000
    0.000000     5.500000     0.000000
    0.000000     0.000000     5.500000
PRIMCOORD
8 1
14     0.000000     0.000000     0.000000
14     2.750000     2.750000     0.000000
14     0.000000     2.750000     2.750000
14     2.750000     0.000000     2.750000
14     1.375000     1.375000     1.375000
14     4.125000     4.125000     1.375000
14     1.375000     4.125000     4.125000
14     4.125000     1.375000     4.125000
